<?xml version="1.0" encoding="UTF-8"?>

<!-- generated on 2026-06-15T17:12:17.392057+08:00 by Eclipse SUMO polyconvert 1.26.0
<polyconvertConfiguration xmlns:xsi="http://www.w3.org/2001/XMLSchema-instance" xsi:noNamespaceSchemaLocation="http://sumo.dlr.de/xsd/polyconvertConfiguration.xsd">

    <input>
        <net-file value="D:\Workspace\project000_LLM_Sim\02_Working\data\maps\demo_city\demo_city.net.xml"/>
        <osm-files value="D:\Workspace\project000_LLM_Sim\02_Working\data\maps\demo_city\source\demo_city.osm.xml"/>
        <type-file value="D:\Sumo\data\typemap\osmPolyconvert.typ.xml"/>
    </input>

    <output>
        <output-file value="D:\Workspace\project000_LLM_Sim\02_Working\data\maps\demo_city\demo_city.poly.xml"/>
    </output>

    <processing>
        <ignore-errors value="true"/>
    </processing>

</polyconvertConfiguration>
-->

<additional xmlns:xsi="http://www.w3.org/2001/XMLSchema-instance" xsi:noNamespaceSchemaLocation="http://sumo.dlr.de/xsd/additional_file.xsd">
    <location netOffset="-734132.66,-2556327.63" convBoundary="-5054.02,-5991.28,23417.40,4161.96" origBoundary="113.236674,23.041774,113.513373,23.136001" projParameter="+proj=utm +zone=49 +ellps=WGS84 +datum=WGS84 +units=m +no_defs"/>

    <poly id="1007205124" type="amenity" color="237,199,199" fill="0" layer="-1.00" shape="3035.779810,3051.939934 3037.383455,3055.488606 3037.813782,3059.362097 3037.015482,3063.171755"/>
    <poly id="1007205125" type="amenity" color="237,199,199" fill="0" layer="-1.00" shape="3014.614101,3065.197967 3013.038506,3061.173336 3012.943208,3056.850919 3014.340252,3052.762710"/>
    <poly id="1007205126" type="amenity" color="237,199,199" fill="0" layer="-1.00" shape="3020.782574,3047.148148 3025.048437,3046.307408 3029.341595,3046.973880"/>
    <poly id="1007205127" type="amenity" color="237,199,199" fill="0" layer="-1.00" shape="3032.165657,3069.166141 3028.594876,3070.760229 3024.704679,3071.174844 3020.874638,3070.382778"/>
    <poly id="100858010" type="water" color="181,209,209" fill="0" layer="-4.00" shape="2019.509852,3870.436383 2010.259419,3850.879309 2012.166825,3840.417509 2025.523826,3825.793828 2038.228817,3818.704759 2055.040006,3801.421358 2069.759069,3759.653120 2073.752037,3706.757840 2068.006250,3617.889478 2050.661342,3592.476380 2021.812038,3571.434841 1981.303553,3540.581146 1957.314443,3493.403324 1922.321711,3417.622427 1903.180345,3321.097264 1880.386207,3233.289108 1826.576155,3160.291113 1813.517498,3144.994932 1757.489263,3079.396311 1752.792598,3029.033875 1798.997295,2957.616517 1866.018039,2889.840915 1866.716525,2859.262423 1847.109015,2844.660436 1741.591941,2833.188214 1693.762801,2798.541680 1677.132477,2738.152586 1665.697680,2626.471634 1656.329212,2574.063453 1632.857065,2478.379138 1622.033321,2258.476000 1614.769564,2220.714490 1605.314507,2193.233066 1584.796034,2169.399347 1560.349293,2150.976760 1523.727284,2137.824126 1447.072059,2118.578134 1311.496564,2070.528689 1208.622289,2017.799653"/>
    <poly id="1010947872" type="residential" color="235,235,227" fill="1" layer="-3.00" shape="4453.790908,2444.460570 4538.166994,2442.673285 4552.143206,2437.633953 4558.556303,2424.286117 4564.782233,2313.647526 4446.156795,2310.367232 4453.790908,2444.460570"/>
    <poly id="1012166859" type="building" color="255,230,230" fill="1" layer="-1.00" shape="4919.818067,3655.444322 4917.970933,3650.495489 4913.848537,3650.695376 4910.685449,3642.180064 4935.502416,3637.104288 4938.766809,3656.567672 4919.818067,3655.444322"/>
    <poly id="1012166860" type="building" color="255,230,230" fill="1" layer="-1.00" shape="4907.575039,3630.375018 4903.139976,3615.546244 4919.417661,3611.984525 4921.382497,3626.219775 4907.575039,3630.375018"/>
    <poly id="1012166861" type="building" color="255,230,230" fill="1" layer="-1.00" shape="4911.250428,3640.172662 4933.953026,3635.317849 4931.805979,3625.422801 4909.113611,3630.277783 4911.250428,3640.172662"/>
    <poly id="1012166862" type="building" color="255,230,230" fill="1" layer="-1.00" shape="4923.434075,3624.801230 4933.436796,3622.125101 4929.789578,3608.649542 4919.786849,3611.325674 4923.434075,3624.801230"/>
    <poly id="1016781058" type="building" color="255,230,230" fill="1" layer="-1.00" shape="4603.738051,2669.784472 4615.102461,2675.550154 4622.647859,2672.779077 4624.069857,2662.032676 4617.969647,2652.606327 4606.185170,2660.295347 4603.738051,2669.784472"/>
    <poly id="1016781059" type="building" color="255,230,230" fill="1" layer="-1.00" shape="4720.387812,2630.478874 4728.042127,2633.714604 4731.547590,2623.411467 4723.671396,2620.593202 4720.387812,2630.478874"/>
    <poly id="1024423912" type="building" color="255,230,230" fill="1" layer="-1.00" shape="4172.163747,3169.039142 4171.719367,3156.434851 4178.332322,3156.208024 4177.937556,3144.989441 4196.864152,3144.327652 4197.211947,3153.994381 4203.558372,3153.774390 4203.973949,3165.613751 4198.355412,3165.812123 4198.854671,3180.112431 4178.082713,3180.833392 4177.659171,3168.849875 4172.163747,3169.039142"/>
    <poly id="1024423913" type="building" color="255,230,230" fill="1" layer="-1.00" shape="4204.704297,3166.079663 4204.259944,3153.475368 4210.872901,3153.248556 4210.478160,3142.029969 4229.404765,3141.368221 4229.752539,3151.034953 4236.098967,3150.814975 4236.514519,3162.654340 4230.895980,3162.852699 4231.395207,3177.153012 4210.623239,3177.873928 4210.199723,3165.890407 4204.704297,3166.079663"/>
    <poly id="1025002659" type="water" color="181,209,209" fill="1" layer="-4.00" shape="17622.104910,-1163.614885 17627.272946,-1179.538989 17634.861758,-1189.461131 17665.721402,-1203.080230 17688.451633,-1202.066033 17707.612312,-1214.929077 17720.889409,-1215.647381 17720.444044,-1226.336326 17728.716315,-1229.964370 17873.042284,-1285.317797 17880.536760,-1261.634719 17834.292676,-1235.410874 17806.531225,-1218.293932 17773.171783,-1206.600859 17756.367742,-1202.806253 17740.649231,-1207.469813 17739.473184,-1212.509009 17719.655825,-1198.393900 17712.940730,-1193.487559 17689.400386,-1183.523738 17646.371359,-1160.691235 17622.104910,-1163.614885"/>
    <poly id="1025002666" type="water" color="181,209,209" fill="1" layer="-4.00" shape="16680.122054,-1615.424201 16660.437730,-1622.047745 16662.918684,-1655.080699 16656.280345,-1669.419007 16661.054296,-1675.344482 16670.469635,-1679.286353 16694.946755,-1679.707059 16706.939161,-1673.489438 16724.826302,-1674.009493 16738.242326,-1670.770725 16749.030988,-1674.689523 16764.682759,-1673.341208 16788.965474,-1678.673573 16808.390909,-1689.007001 16833.302212,-1682.306674 16845.880139,-1677.996001 16863.825814,-1682.614606 16874.799438,-1681.056565 16882.814045,-1683.381929 16890.962240,-1677.782658 16907.398056,-1673.673132 16923.988852,-1679.411346 16931.556423,-1673.422904 16717.139295,-1622.127667 16696.454093,-1603.903956 16680.122054,-1615.424201"/>
    <poly id="1025002667" type="water" color="181,209,209" fill="1" layer="-4.00" shape="16649.364157,-1640.881412 16650.967086,-1655.170224 16645.412552,-1668.116409 16645.332828,-1679.873887 16618.242035,-1687.430357 16607.536015,-1688.440790 16586.579718,-1685.235205 16571.808553,-1689.582401 16553.332406,-1686.335213 16534.712433,-1691.023862 16527.454725,-1684.308944 16506.626683,-1688.757542 16492.192715,-1680.799950 16466.447715,-1686.693720 16452.875996,-1680.638531 16414.411259,-1682.379622 16399.129840,-1672.785184 16362.517618,-1670.672447 16326.336134,-1660.607894 16313.110950,-1642.790673 16301.513997,-1656.103766 16262.601040,-1664.134457 16250.103043,-1656.687180 16230.182975,-1665.773885 16214.638726,-1663.130963 16293.560133,-1620.037821 16284.634840,-1582.891193 16303.790097,-1570.991745 16376.712040,-1600.651544 16458.339076,-1608.359329 16466.585019,-1641.029786 16615.365034,-1666.237744 16644.858317,-1650.951317 16649.364157,-1640.881412"/>
    <poly id="1025002668" type="water" color="181,209,209" fill="1" layer="-4.00" shape="18281.616755,-1891.207834 18236.789868,-1897.504106 18194.434734,-1884.412237 18177.294937,-1889.942262 18155.769253,-1876.731750 18127.424516,-1885.309362 18098.979623,-1859.362199 18069.494216,-1870.817661 18031.473244,-1844.799093 17983.111405,-1829.902067 17950.011746,-1826.415393 17939.477419,-1812.066520 17901.650074,-1811.518116 17880.272441,-1793.074831 17849.921157,-1795.724490 17841.297491,-1781.598232 17779.143553,-1771.930072 17727.498514,-1747.093088 17658.704139,-1741.824313 17627.792945,-1725.203186 17555.379699,-1718.089027 17505.577944,-1703.458544 17422.484007,-1701.287917 17391.179602,-1689.913936 17348.970311,-1699.432270 17298.776322,-1703.533426 17345.786843,-1678.976135 17625.318901,-1672.602190 17665.627891,-1682.361562 18054.159416,-1832.594028 18281.616755,-1891.207834"/>
    <poly id="102592289" type="water" color="181,209,209" fill="0" layer="-4.00" shape="3228.666230,735.521870 3087.693453,750.578329 2986.553656,762.634024 2928.140262,780.508786 2852.733442,810.113060 2780.638947,848.013110 2708.529284,887.541871 2655.347424,920.047491 2636.110818,946.587567 2628.637839,957.703461"/>
    <poly id="1050732572" type="commercial" color="209,209,204" fill="1" layer="-3.00" shape="4313.817236,3300.009531 4294.436292,3281.651747 4289.514011,3269.053481 4286.827396,3251.848678 4289.349478,3220.966517 4298.844692,3210.293640 4320.424705,3202.605771 4361.532943,3198.930370 4363.275129,3250.876014 4333.215227,3280.731086 4313.817236,3300.009531"/>
    <poly id="1050732576" type="landuse" color="194,194,130" fill="1" layer="-3.00" shape="4442.272353,3306.460257 4445.726424,3194.192981 4366.542846,3197.703038 4367.403878,3247.717881 4442.272353,3306.460257"/>
    <poly id="1050732577" type="landuse" color="194,194,130" fill="1" layer="-3.00" shape="4281.306224,3399.304089 4292.957485,3399.268581 4348.826908,3398.410450 4417.447507,3396.659422 4404.985137,3392.305528 4392.370458,3384.016042 4361.326698,3356.165157 4342.931622,3338.321615 4303.116850,3300.171010 4290.222976,3284.332135 4283.344907,3271.647242 4275.421517,3244.852740 4272.219276,3321.537109 4272.071263,3344.280631 4275.879759,3399.671680 4281.306224,3399.304089"/>
    <poly id="1050732578" type="commercial" color="209,209,204" fill="1" layer="-3.00" shape="4301.557252,3608.883104 4378.217861,3599.604591 4361.701813,3451.985351 4310.618531,3454.725795 4298.387613,3462.186265 4289.931206,3475.191303 4287.838578,3495.222572 4289.925099,3526.898504 4301.557252,3608.883104"/>
    <poly id="1050732579" type="residential" color="235,235,227" fill="1" layer="-3.00" shape="4309.268686,3674.584939 4384.825201,3667.050474 4379.339267,3609.582847 4378.217861,3599.604591 4301.557252,3608.883104 4309.268686,3674.584939"/>
    <poly id="1050732580" type="residential" color="235,235,227" fill="1" layer="-3.00" shape="4318.225316,3730.324189 4327.116844,3734.332929 4339.733204,3736.085600 4389.189555,3733.784688 4384.825201,3667.050474 4309.268686,3674.584939 4314.705766,3724.861242 4318.225316,3730.324189"/>
    <poly id="1050732584" type="water" color="181,209,209" fill="0" layer="-4.00" shape="4503.615074,3922.134748 4516.594034,3762.777243 4518.774730,3727.003603 4528.688339,3448.538279"/>
    <poly id="1050732585" type="water" color="181,209,209" fill="0" layer="-4.00" shape="4528.688339,3448.538279 4529.826070,3416.470638 4532.682401,3374.968699"/>
    <poly id="1069598597" type="leisure" color="207,245,201" fill="1" layer="-2.00" shape="2407.703917,1419.884430 2415.614443,1392.112314 2400.188090,1387.768804 2392.277591,1415.540926 2407.703917,1419.884430"/>
    <poly id="1069598597#1" type="sport" color="79,230,125" fill="1" layer="-2.00" shape="2407.703917,1419.884430 2415.614443,1392.112314 2400.188090,1387.768804 2392.277591,1415.540926 2407.703917,1419.884430"/>
    <poly id="1069598598" type="leisure" color="207,245,201" fill="1" layer="-2.00" shape="2378.820253,1444.776330 2386.740962,1417.004365 2371.314804,1412.649806 2363.404194,1440.433016 2378.820253,1444.776330"/>
    <poly id="1069598598#1" type="sport" color="79,230,125" fill="1" layer="-2.00" shape="2378.820253,1444.776330 2386.740962,1417.004365 2371.314804,1412.649806 2363.404194,1440.433016 2378.820253,1444.776330"/>
    <poly id="1069598599" type="leisure" color="207,245,201" fill="1" layer="-2.00" shape="2387.450678,1413.603215 2395.371413,1385.831253 2379.945049,1381.487765 2372.034588,1409.259895 2387.450678,1413.603215"/>
    <poly id="1069598599#1" type="sport" color="79,230,125" fill="1" layer="-2.00" shape="2387.450678,1413.603215 2395.371413,1385.831253 2379.945049,1381.487765 2372.034588,1409.259895 2387.450678,1413.603215"/>
    <poly id="1069604896" type="building" color="255,230,230" fill="1" layer="-1.00" shape="3608.387364,2452.494905 3615.999440,2444.882747 3616.689015,2425.383117 3617.307987,2407.743682 3675.909877,2408.610209 3675.354491,2421.608442 3658.154263,2438.008889 3673.630045,2453.323126 3641.578569,2485.341565 3620.644967,2464.622419 3608.387364,2452.494905"/>
    <poly id="1080777398" type="water" color="181,209,209" fill="0" layer="-4.00" shape="4352.058465,2220.805890 4355.845492,2217.886018"/>
    <poly id="1080786660" type="building" color="255,230,230" fill="0" layer="-1.00" shape="3127.471220,1791.449138 3097.755389,1789.969010 3097.038570,1789.935468 3062.248989,1787.876276 3033.602185,1786.191666 3035.811220,1750.972646 3033.713608,1726.886352 3028.331625,1702.470940 3026.001229,1693.692440 3029.437514,1684.451522 3102.139444,1659.093233 3113.779875,1652.719178"/>
    <poly id="1089796004" type="building" color="255,230,230" fill="1" layer="-1.00" shape="3388.490813,3707.024852 3431.951088,3706.098914 3431.623543,3691.269623 3388.163048,3692.206643 3388.490813,3707.024852"/>
    <poly id="1092152291" type="building" color="255,230,230" fill="1" layer="-1.00" shape="2008.214834,2738.941823 2044.956265,2739.245907 2045.165825,2734.418708 2035.329367,2733.720257 2029.037993,2728.513264 2025.978401,2720.465724 2008.500517,2720.876233 2008.214834,2738.941823"/>
    <poly id="1092152292" type="tourism" color="207,245,201" fill="1" layer="-2.00" shape="2172.818467,2804.752400 2233.311760,2807.050421 2233.958889,2790.120603 2173.465703,2787.811510 2172.818467,2804.752400"/>
    <poly id="1092152293" type="tourism" color="207,245,201" fill="1" layer="-2.00" shape="2273.753596,2813.097279 2333.065602,2815.576431 2334.164540,2789.535592 2274.842010,2787.067359 2273.753596,2813.097279"/>
    <poly id="1092160014" type="building" color="255,230,230" fill="1" layer="-1.00" shape="3866.471149,3702.096722 3863.523853,3684.511175 3974.254812,3666.168157 3976.200934,3677.777092 3983.444016,3676.574196 3985.400019,3688.205450 3956.396990,3693.016561 3960.280414,3716.145652 3908.716234,3724.696338 3903.878107,3695.890512 3866.471149,3702.096722"/>
    <poly id="1104445407" type="building" color="255,230,230" fill="1" layer="-1.00" shape="3583.560079,3739.534664 3581.778038,3671.280002 3565.253726,3671.703769 3567.056155,3739.969826 3583.560079,3739.534664"/>
    <poly id="1104447426" type="building" color="255,230,230" fill="1" layer="-1.00" shape="3376.504160,3619.972592 3376.357086,3616.336250 3381.155710,3616.135621 3381.302606,3619.783040 3376.504160,3619.972592"/>
    <poly id="1104447678" type="tourism" color="207,245,201" fill="1" layer="-2.00" shape="3524.486397,3591.649382 3521.679132,3540.784004 3532.252631,3540.210031 3535.070105,3591.075578 3524.486397,3591.649382"/>
    <poly id="1137655858" type="building" color="255,230,230" fill="1" layer="-1.00" shape="2774.511390,2362.154746 2776.524281,2365.754182 2779.197829,2367.757612 2783.559213,2368.657737 2787.204632,2368.826357 2790.127355,2368.041780 2793.279981,2366.330197 2794.981173,2364.385084 2811.285698,2364.333526 2811.229694,2368.509502 2817.428548,2368.563530 2817.504710,2362.471170 2822.659468,2362.453240 2822.818417,2355.664203 2812.930344,2355.618118 2811.973422,2354.572570 2810.575144,2354.218010 2809.331647,2354.442025 2808.515149,2355.525914 2807.409229,2355.475131 2807.055173,2354.538860 2805.791660,2354.086726 2804.629068,2354.378500 2804.028065,2355.443649 2802.953230,2355.371202 2802.222925,2354.251695 2800.885238,2353.953493 2799.822810,2354.390886 2799.185045,2355.189552 2794.739116,2355.096864 2794.709740,2345.967126 2796.919137,2344.284897 2797.135755,2342.903432 2796.397435,2340.997174 2794.358769,2339.668565 2794.393604,2331.658847 2795.109761,2330.440415 2799.302035,2330.373969 2800.728995,2331.504528 2802.204437,2331.516855 2803.306562,2330.515051 2804.301724,2330.442205 2804.933095,2331.338558 2806.301519,2331.637248 2807.486887,2331.201805 2807.960560,2330.411616 2808.831201,2330.436507 2809.189826,2331.084791 2810.250024,2331.433987 2811.339147,2331.251840 2811.926744,2330.385904 2823.392373,2330.468094 2823.181450,2323.739664 2816.623127,2323.735328 2816.642369,2319.292868 2811.570786,2319.234567 2811.473592,2320.839511 2771.659117,2321.027787 2771.653128,2333.680151 2779.931534,2333.778228 2779.668388,2351.013307 2774.780347,2351.013325 2774.511390,2362.154746"/>
    <poly id="1144276306" type="building" color="255,230,230" fill="1" layer="-1.00" shape="4202.540526,3129.594118 4202.096166,3116.989824 4208.709140,3116.763010 4208.314392,3105.544424 4227.241043,3104.882669 4227.588822,3114.549400 4233.935266,3114.329420 4234.350823,3126.168784 4228.732271,3126.367146 4229.231506,3140.667457 4208.459488,3141.388380 4208.035966,3129.404861 4202.540526,3129.594118"/>
    <poly id="1144325889" type="amenity" color="237,199,199" fill="1" layer="-1.00" shape="4610.622837,2778.837864 4616.369408,2778.974060 4616.179190,2787.025712 4616.146808,2788.410115 4621.094466,2788.522459 4620.919476,2795.621531 4610.225433,2795.361914 4610.622837,2778.837864"/>
    <poly id="1144325889#1" type="building" color="255,230,230" fill="1" layer="-1.00" shape="4610.622837,2778.837864 4616.369408,2778.974060 4616.179190,2787.025712 4616.146808,2788.410115 4621.094466,2788.522459 4620.919476,2795.621531 4610.225433,2795.361914 4610.622837,2778.837864"/>
    <poly id="1144325891" type="amenity" color="237,199,199" fill="1" layer="-1.00" shape="4699.228114,2805.316283 4699.283956,2797.340033 4703.085270,2797.367594 4707.112145,2797.387685 4707.097201,2799.603319 4707.056121,2805.375012 4701.256740,2805.337650 4699.228114,2805.316283"/>
    <poly id="1144325891#1" type="building" color="255,230,230" fill="1" layer="-1.00" shape="4699.228114,2805.316283 4699.283956,2797.340033 4703.085270,2797.367594 4707.112145,2797.387685 4707.097201,2799.603319 4707.056121,2805.375012 4701.256740,2805.337650 4699.228114,2805.316283"/>
    <poly id="1144325892" type="amenity" color="237,199,199" fill="1" layer="-1.00" shape="4671.167493,2813.863945 4678.800668,2813.930623 4678.777550,2817.298380 4678.744541,2820.643820 4671.111369,2820.577142 4671.132006,2817.364456 4671.167493,2813.863945"/>
    <poly id="1144325892#1" type="building" color="255,230,230" fill="1" layer="-1.00" shape="4671.167493,2813.863945 4678.800668,2813.930623 4678.777550,2817.298380 4678.744541,2820.643820 4671.111369,2820.577142 4671.132006,2817.364456 4671.167493,2813.863945"/>
    <poly id="1144325893" type="amenity" color="237,199,199" fill="1" layer="-1.00" shape="4631.667482,2793.788019 4631.840640,2784.240380 4631.901006,2781.105886 4642.944267,2781.315705 4642.816239,2788.681433 4642.710910,2793.986763 4631.667482,2793.788019"/>
    <poly id="1144325893#1" type="building" color="255,230,230" fill="1" layer="-1.00" shape="4631.667482,2793.788019 4631.840640,2784.240380 4631.901006,2781.105886 4642.944267,2781.315705 4642.816239,2788.681433 4642.710910,2793.986763 4631.667482,2793.788019"/>
    <poly id="1144325915" type="leisure" color="207,245,201" fill="1" layer="-2.00" shape="4605.692422,2767.391616 4607.002627,2820.039516 4737.253978,2822.731928 4736.643631,2789.140598 4728.979174,2789.106630 4728.949171,2774.326273 4709.859595,2751.186356 4700.621380,2757.287359 4694.359369,2761.186857 4687.042156,2765.069481 4680.196263,2767.674439 4670.001237,2770.170444 4653.091557,2771.550858 4638.030209,2772.052339 4626.552796,2771.436725 4616.906051,2769.764613 4605.692422,2767.391616"/>
    <poly id="1144805386" type="residential" color="235,235,227" fill="1" layer="-3.00" shape="2358.445973,761.667190 2355.468241,721.868055 2391.492890,719.214082 2405.290248,728.750012 2407.480808,758.055825 2358.445973,761.667190"/>
    <poly id="1144924594" type="amenity" color="237,199,199" fill="1" layer="-1.00" shape="5078.641075,2710.290049 5078.768882,2699.112988 5088.246021,2699.220487 5107.589779,2699.430662 5107.461772,2710.618801 5078.641075,2710.290049"/>
    <poly id="1144924594#1" type="building" color="255,230,230" fill="1" layer="-1.00" shape="5078.641075,2710.290049 5078.768882,2699.112988 5088.246021,2699.220487 5107.589779,2699.430662 5107.461772,2710.618801 5078.641075,2710.290049"/>
    <poly id="1144924598" type="landuse" color="194,194,130" fill="1" layer="-3.00" shape="5002.262663,2796.316926 5002.020984,2781.333722 5024.591404,2780.975028 5024.833061,2795.958235 5002.262663,2796.316926"/>
    <poly id="1144924599" type="building" color="255,230,230" fill="1" layer="-1.00" shape="4855.528933,2814.376004 4855.404886,2806.119882 4861.739302,2806.021835 4861.584955,2796.457861 4865.264755,2796.394883 4868.216649,2796.353495 4868.370638,2805.939622 4874.028550,2805.852911 4874.152941,2814.086880 4855.528933,2814.376004"/>
    <poly id="1144924617" type="amenity" color="237,199,199" fill="1" layer="-1.00" shape="4457.558024,2590.313827 4457.532190,2573.971381 4461.334086,2573.965647 4461.330662,2570.331567 4458.922594,2570.326332 4453.470748,2570.338946 4453.497357,2590.481618 4452.349760,2590.474363 4452.351517,2596.778538 4459.022665,2596.774326 4459.017825,2593.228858 4459.013143,2590.314916 4457.558024,2590.313827"/>
    <poly id="1144924617#1" type="building" color="255,230,230" fill="1" layer="-1.00" shape="4457.558024,2590.313827 4457.532190,2573.971381 4461.334086,2573.965647 4461.330662,2570.331567 4458.922594,2570.326332 4453.470748,2570.338946 4453.497357,2590.481618 4452.349760,2590.474363 4452.351517,2596.778538 4459.022665,2596.774326 4459.017825,2593.228858 4459.013143,2590.314916 4457.558024,2590.313827"/>
    <poly id="1144924618" type="water" color="181,209,209" fill="1" layer="-4.00" shape="5095.269137,2762.319357 5082.431977,2764.063679 5078.389608,2763.090412 5074.270081,2759.257427 5070.544110,2755.164842 5072.038702,2751.421790 5075.512886,2746.923811 5078.589477,2742.297591 5080.773049,2737.125255 5080.308766,2733.483776 5079.567827,2730.480471 5080.427471,2726.073563 5083.073246,2724.033021 5083.676819,2718.979406 5085.960442,2715.237915 5091.986548,2714.558894 5099.686539,2714.937075 5103.616500,2714.612256 5107.821391,2713.117427 5110.192242,2712.246900 5112.144736,2712.544086 5112.902351,2714.506198 5110.246278,2717.189176 5107.433954,2721.309973 5111.085037,2730.076872 5111.515950,2735.800745 5113.487159,2743.244443 5112.885528,2748.176215 5108.060383,2755.765852 5101.697124,2760.860143 5095.269137,2762.319357"/>
    <poly id="1144924619" type="water" color="181,209,209" fill="1" layer="-4.00" shape="5089.974869,2740.984262 5093.222162,2737.856497 5097.045020,2735.901290 5101.901263,2735.325405 5106.268501,2735.849627 5106.954402,2737.810590 5106.752544,2742.095082 5105.299536,2747.079691 5102.100047,2751.061332 5098.809079,2752.437851 5094.165012,2752.562880 5091.982536,2749.990735 5089.942647,2746.833666 5089.303094,2743.898460 5089.974869,2740.984262"/>
    <poly id="1149085353" type="building" color="255,230,230" fill="1" layer="-1.00" shape="4983.522241,1919.294293 4983.128804,1943.873129 5012.491127,1944.387484 5012.894858,1919.808808 4983.522241,1919.294293"/>
    <poly id="1149085354" type="building" color="255,230,230" fill="1" layer="-1.00" shape="4982.719522,1967.521045 4983.128804,1943.873129 5012.491127,1944.387484 5012.081976,1968.024327 4982.719522,1967.521045"/>
    <poly id="1149085355" type="building" color="255,230,230" fill="1" layer="-1.00" shape="5025.619936,1873.900158 5004.205383,1853.182363 4984.118824,1873.701135 5005.543437,1894.430142 5025.619936,1873.900158"/>
    <poly id="1149085356" type="building" color="255,230,230" fill="1" layer="-1.00" shape="4882.637595,1879.190045 4918.554845,1874.823367 4914.564809,1842.385601 4878.647307,1846.763372 4882.637595,1879.190045"/>
    <poly id="1149085357" type="building" color="255,230,230" fill="1" layer="-1.00" shape="4861.728137,1853.793984 4842.668791,1870.972312 4862.045902,1892.222307 4881.105426,1875.032927 4861.728137,1853.793984"/>
    <poly id="1149085358" type="building" color="255,230,230" fill="1" layer="-1.00" shape="4842.668791,1870.972312 4820.927037,1890.556291 4840.334529,1911.828902 4862.045902,1892.222307 4842.668791,1870.972312"/>
    <poly id="1149085359" type="building" color="255,230,230" fill="1" layer="-1.00" shape="4831.624500,1913.706011 4831.231315,1938.284829 4860.593623,1938.798884 4860.986857,1914.220063 4831.624500,1913.706011"/>
    <poly id="1149085360" type="building" color="255,230,230" fill="1" layer="-1.00" shape="4831.231315,1938.284829 4830.838125,1962.863648 4860.200385,1963.377707 4860.593623,1938.798884 4831.231315,1938.284829"/>
    <poly id="1149085361" type="building" color="255,230,230" fill="1" layer="-1.00" shape="4830.419013,1986.500306 4830.838125,1962.863648 4860.200385,1963.377707 4859.791471,1987.014533 4830.419013,1986.500306"/>
    <poly id="1149085362" type="building" color="255,230,230" fill="1" layer="-1.00" shape="4853.783672,2269.630652 4853.077612,2293.262730 4823.721496,2292.405256 4824.417265,2268.773016 4853.783672,2269.630652"/>
    <poly id="1149085363" type="building" color="255,230,230" fill="1" layer="-1.00" shape="4852.387220,2317.836806 4853.077612,2293.262730 4823.721496,2292.405256 4823.031330,2316.968252 4852.387220,2317.836806"/>
    <poly id="1149085364" type="building" color="255,230,230" fill="1" layer="-1.00" shape="4851.696825,2342.410883 4852.387220,2317.836806 4823.031330,2316.968252 4822.340983,2341.542326 4851.696825,2342.410883"/>
    <poly id="1149085365" type="building" color="255,230,230" fill="1" layer="-1.00" shape="4809.735865,2362.712760 4830.909955,2383.692396 4851.237663,2363.421103 4830.063566,2342.441440 4809.735865,2362.712760"/>
    <poly id="1149085366" type="building" color="255,230,230" fill="1" layer="-1.00" shape="4830.909955,2383.692396 4853.384319,2406.022399 4873.752305,2385.796098 4851.237663,2363.421103 4830.909955,2383.692396"/>
    <poly id="1149085367" type="building" color="255,230,230" fill="1" layer="-1.00" shape="4908.693465,2363.587184 4872.733064,2367.520981 4876.332894,2399.996835 4912.303465,2396.063218 4908.693465,2363.587184"/>
    <poly id="1149085368" type="building" color="255,230,230" fill="1" layer="-1.00" shape="4949.725530,2359.712499 4916.797126,2363.085362 4920.187709,2395.823793 4953.115866,2392.462020 4949.725530,2359.712499"/>
    <poly id="1149085369" type="building" color="255,230,230" fill="1" layer="-1.00" shape="4967.650046,2385.869797 4988.094608,2367.273528 4968.080899,2345.514512 4951.286417,2360.790027 4954.680649,2364.489478 4951.030570,2367.810258 4967.650046,2385.869797"/>
    <poly id="1149085370" type="building" color="255,230,230" fill="1" layer="-1.00" shape="4988.094608,2367.273528 5003.568499,2353.195639 4999.448870,2348.720084 5004.024252,2344.572097 4988.130170,2327.288610 4968.080899,2345.514512 4988.094608,2367.273528"/>
    <poly id="1149085371" type="building" color="255,230,230" fill="1" layer="-1.00" shape="5004.210610,2325.252637 5004.901254,2300.678546 4975.545307,2299.809695 4974.854712,2324.383783 5004.210610,2325.252637"/>
    <poly id="1149085372" type="building" color="255,230,230" fill="1" layer="-1.00" shape="5004.901254,2300.678546 5005.591895,2276.104455 4976.235723,2275.246683 4975.545307,2299.809695 5004.901254,2300.678546"/>
    <poly id="1149085373" type="building" color="255,230,230" fill="1" layer="-1.00" shape="5006.287949,2252.472199 5005.591895,2276.104455 4976.235723,2275.246683 4976.931730,2251.614430 5006.287949,2252.472199"/>
    <poly id="1149085374" type="building" color="255,230,230" fill="1" layer="-1.00" shape="4978.665866,2204.743179 4962.953381,2186.986234 4984.997703,2167.695387 5000.710364,2185.441279 4978.665866,2204.743179"/>
    <poly id="1149085375" type="building" color="255,230,230" fill="1" layer="-1.00" shape="4970.900927,2020.191565 4988.031284,2003.802396 5008.394926,2024.857907 4991.264567,2041.247053 4970.900927,2020.191565"/>
    <poly id="1149085376" type="building" color="255,230,230" fill="1" layer="-1.00" shape="4844.224226,2061.362848 4828.511425,2043.606074 4850.555741,2024.315028 4866.268719,2042.060749 4844.224226,2061.362848"/>
    <poly id="1149085377" type="building" color="255,230,230" fill="1" layer="-1.00" shape="5001.724408,2163.708690 4977.819992,2163.481112 4978.193413,2122.870090 5002.108140,2123.097827 5001.724408,2163.708690"/>
    <poly id="1149085378" type="building" color="255,230,230" fill="1" layer="-1.00" shape="5000.968729,2087.370747 4977.053945,2087.143016 4977.437587,2046.532161 5001.352436,2046.759887 5000.968729,2087.370747"/>
    <poly id="1149085379" type="building" color="255,230,230" fill="1" layer="-1.00" shape="4822.638938,2201.858424 4839.779175,2185.469279 4860.142727,2206.524596 4843.002487,2222.913718 4822.638938,2201.858424"/>
    <poly id="1149085380" type="building" color="255,230,230" fill="1" layer="-1.00" shape="4853.758087,2179.643603 4829.843295,2179.427171 4830.216319,2138.816180 4854.141421,2139.032771 4853.758087,2179.643603"/>
    <poly id="1149085381" type="building" color="255,230,230" fill="1" layer="-1.00" shape="4852.991419,2103.305568 4829.086751,2103.089312 4829.459927,2062.467248 4853.374728,2062.694739 4852.991419,2103.305568"/>