<?xml version='1.0' encoding='utf-8'?>
<routes>
  <vType id="private_car" vClass="passenger" guiShape="passenger" color="0,0,255" accel="2.6" decel="4.5" sigma="0.5" length="5" />
  <vType id="commuter" vClass="passenger" guiShape="passenger" color="0,180,0" accel="2.6" decel="4.5" sigma="0.5" length="5" />
  <vType id="taxi" vClass="passenger" guiShape="taxi" color="255,255,0" accel="2.6" decel="4.5" sigma="0.5" length="5" />
  <vType id="event_vehicle" vClass="passenger" guiShape="passenger" color="255,128,0" accel="2.3" decel="4.2" sigma="0.6" length="5" />
  <vType id="rerouted_vehicle" vClass="passenger" guiShape="passenger" color="160,32,240" accel="2.6" decel="4.5" sigma="0.5" length="5" />
  <trip id="driver_0015_trip_001" type="taxi" depart="23460" from="-188246591#2" to="29141762#4" departLane="best" departSpeed="max" />
  <trip id="driver_0597_trip_001" type="taxi" depart="23520" from="-45838048#8" to="442084726" departLane="best" departSpeed="max" />
  <trip id="driver_0429_trip_001" type="taxi" depart="23580" from="440897382#4-AddedOnRampEdge" to="1157862092#1" departLane="best" departSpeed="max" />
  <trip id="driver_0677_trip_001" type="taxi" depart="23640" from="440781331#4" to="444433525#7" departLane="best" departSpeed="max" />
  <trip id="driver_0273_trip_001" type="taxi" depart="23760" from="440765420#7" to="442084726" departLane="best" departSpeed="max" />
  <trip id="driver_0234_trip_001" type="taxi" depart="23820" from="519662802#4" to="541821720#3" departLane="best" departSpeed="max" />
  <trip id="driver_0989_trip_001" type="taxi" depart="23880" from="194345865#1" to="481045534#2" departLane="best" departSpeed="max" />
  <trip id="driver_0484_trip_001" type="taxi" depart="24000" from="312565414#0" to="1092152287#0" departLane="best" departSpeed="max" />
  <trip id="driver_0546_trip_001" type="taxi" depart="24000" from="451041314#1" to="444014977#2" departLane="best" departSpeed="max" />
  <trip id="driver_0907_trip_001" type="taxi" depart="24000" from="-993462498#3" to="-513785001#1" departLane="best" departSpeed="max" />
  <trip id="driver_0819_trip_001" type="taxi" depart="24300" from="387281354" to="29141762#6" departLane="best" departSpeed="max" />
  <trip id="driver_0468_trip_001" type="taxi" depart="24360" from="449880707#0" to="-427774900#1" departLane="best" departSpeed="max" />
  <trip id="driver_0064_trip_001" type="taxi" depart="24420" from="719556535" to="444151449" departLane="best" departSpeed="max" />
  <trip id="driver_0986_trip_001" type="taxi" depart="24480" from="-206608466#5" to="444418076#12" departLane="best" departSpeed="max" />
  <trip id="driver_0820_trip_001" type="taxi" depart="24600" from="541821717#0" to="199898038#0" departLane="best" departSpeed="max" />
  <trip id="driver_0501_trip_001" type="private_car" depart="25200" from="466643174#0" to="550008874#1" departLane="best" departSpeed="max" />
  <trip id="driver_0910_trip_001" type="private_car" depart="25200" from="297891659#2" to="102592295#0" departLane="best" departSpeed="max" />
  <trip id="driver_0104_trip_001" type="private_car" depart="25320" from="-1092152288" to="542860215#1" departLane="best" departSpeed="max" />
  <trip id="driver_0413_trip_001" type="taxi" depart="25320" from="860062299#0" to="334124305#2" departLane="best" departSpeed="max" />
  <trip id="driver_0768_trip_001" type="taxi" depart="25320" from="511204845#0" to="440881632#2" departLane="best" departSpeed="max" />
  <trip id="driver_0676_trip_001" type="private_car" depart="25380" from="427774899#1" to="248283749" departLane="best" departSpeed="max" />
  <trip id="driver_0960_trip_001" type="taxi" depart="25380" from="-519662802#9" to="-605357670#4" departLane="best" departSpeed="max" />
  <trip id="driver_0222_trip_001" type="private_car" depart="25500" from="-428012640" to="-585606280#1" departLane="best" departSpeed="max" />
  <trip id="driver_0477_trip_001" type="private_car" depart="25500" from="697672669#2" to="987053806" departLane="best" departSpeed="max" />
  <trip id="driver_0611_trip_001" type="taxi" depart="25500" from="-541821717#2" to="444232018" departLane="best" departSpeed="max" />
  <trip id="driver_0642_trip_001" type="private_car" depart="25500" from="27336785#0" to="624728713#0" departLane="best" departSpeed="max" />
  <trip id="driver_0935_trip_001" type="private_car" depart="25500" from="-199898701#1" to="-184739533#5" departLane="best" departSpeed="max" />
  <trip id="driver_0243_trip_001" type="private_car" depart="25560" from="184739533#6" to="184739533#7" departLane="best" departSpeed="max" />
  <trip id="driver_0762_trip_001" type="private_car" depart="25560" from="443987645#2" to="-27336730#4" departLane="best" departSpeed="max" />
  <trip id="driver_0918_trip_001" type="private_car" depart="25560" from="646373239#1" to="475299606#0" departLane="best" departSpeed="max" />
  <trip id="driver_0944_trip_001" type="taxi" depart="25560" from="576651584" to="771906757#1-AddedOnRampEdge" departLane="best" departSpeed="max" />
  <trip id="driver_0958_trip_001" type="private_car" depart="25560" from="27336730#7" to="-80912578#1" departLane="best" departSpeed="max" />
  <trip id="driver_0147_trip_001" type="private_car" depart="25620" from="-427564710#2" to="248284670#0" departLane="best" departSpeed="max" />
  <trip id="driver_0569_trip_001" type="private_car" depart="25620" from="427564711#1" to="449546093" departLane="best" departSpeed="max" />
  <trip id="driver_0724_trip_001" type="private_car" depart="25620" from="-427774912" to="458696110#0" departLane="best" departSpeed="max" />
  <trip id="driver_0815_trip_001" type="private_car" depart="25620" from="-427774900#0" to="-199898702" departLane="best" departSpeed="max" />
  <trip id="driver_0899_trip_001" type="private_car" depart="25620" from="-29140969#7" to="248284670#1" departLane="best" departSpeed="max" />
  <trip id="driver_0741_trip_001" type="taxi" depart="25680" from="458696120#3" to="1172199237#2" departLane="best" departSpeed="max" />
  <trip id="driver_0030_trip_001" type="private_car" depart="25740" from="444014977#2" to="-184739533#5" departLane="best" departSpeed="max" />
  <trip id="driver_0038_trip_001" type="private_car" depart="25740" from="-441215231#1" to="184739533#6" departLane="best" departSpeed="max" />
  <trip id="driver_0666_trip_001" type="private_car" depart="25740" from="904676303" to="444243640#0" departLane="best" departSpeed="max" />
  <trip id="driver_0302_trip_001" type="private_car" depart="25800" from="834929374#1" to="-27336730#2" departLane="best" departSpeed="max" />
  <trip id="driver_0697_trip_001" type="taxi" depart="25800" from="444232198-AddedOnRampEdge" to="-624728719#7" departLane="best" departSpeed="max" />
  <trip id="driver_0267_trip_001" type="private_car" depart="25860" from="585911372#1" to="356939302#1" departLane="best" departSpeed="max" />
  <trip id="driver_0118_trip_001" type="private_car" depart="25920" from="1005131460" to="1372988688#1" departLane="best" departSpeed="max" />
  <trip id="driver_0489_trip_001" type="private_car" depart="25920" from="444126137" to="248283749" departLane="best" departSpeed="max" />
  <trip id="driver_0625_trip_001" type="private_car" depart="25920" from="448314188" to="441215233#0" departLane="best" departSpeed="max" />
  <trip id="driver_0033_trip_001" type="private_car" depart="25980" from="-585911372#0" to="444422638#0" departLane="best" departSpeed="max" />
  <trip id="driver_0122_trip_001" type="private_car" depart="25980" from="427564711#1" to="-27336730#7" departLane="best" departSpeed="max" />
  <trip id="driver_0295_trip_001" type="taxi" depart="25980" from="1445405492#2" to="457885320#1" departLane="best" departSpeed="max" />
  <trip id="driver_0124_trip_001" type="private_car" depart="26040" from="-1030848735#0" to="-441215231#1" departLane="best" departSpeed="max" />
  <trip id="driver_0001_trip_001" type="private_car" depart="26100" from="-194686987#0" to="949038355#0" departLane="best" departSpeed="max" />
  <trip id="driver_0757_trip_001" type="private_car" depart="26100" from="686139777" to="603954443#1" departLane="best" departSpeed="max" />
  <trip id="driver_0891_trip_001" type="private_car" depart="26220" from="427564714#0" to="624728713#0" departLane="best" departSpeed="max" />
  <trip id="driver_0857_trip_001" type="taxi" depart="26340" from="771906757#1" to="587667683#0" departLane="best" departSpeed="max" />
  <trip id="driver_0906_trip_001" type="private_car" depart="26340" from="-194686987#4" to="356939302#3" departLane="best" departSpeed="max" />
  <trip id="driver_0074_trip_001" type="commuter" depart="26400" from="233932478" to="541821721#0" departLane="best" departSpeed="max" />
  <trip id="driver_0280_trip_001" type="private_car" depart="26400" from="904676306#1" to="585606281#0" departLane="best" departSpeed="max" />
  <trip id="driver_0454_trip_001" type="commuter" depart="26400" from="-184827126#2" to="-624728719#6" departLane="best" departSpeed="max" />
  <trip id="driver_0530_trip_001" type="commuter" depart="26400" from="832418841#4" to="-860062296#1" departLane="best" departSpeed="max" />
  <trip id="driver_0533_trip_001" type="private_car" depart="26400" from="444346472#0" to="542860215#4" departLane="best" departSpeed="max" />
  <trip id="driver_0062_trip_001" type="private_car" depart="26460" from="923953844#0" to="-80912585#1" departLane="best" departSpeed="max" />
  <trip id="driver_0393_trip_001" type="commuter" depart="26460" from="450614677#1" to="-188246591#3" departLane="best" departSpeed="max" />
  <trip id="driver_0539_trip_001" type="taxi" depart="26460" from="444151453" to="-29141189#0" departLane="best" departSpeed="max" />
  <trip id="driver_0764_trip_001" type="commuter" depart="26460" from="184827120#3" to="442016280#1" departLane="best" departSpeed="max" />
  <trip id="driver_0860_trip_001" type="private_car" depart="26460" from="441215231#0" to="347808377" departLane="best" departSpeed="max" />
  <trip id="driver_0197_trip_001" type="private_car" depart="26520" from="-427564714#0" to="233932484#0" departLane="best" departSpeed="max" />
  <trip id="driver_0401_trip_001" type="commuter" depart="26520" from="453033846#4" to="481045550#1" departLane="best" departSpeed="max" />
  <trip id="driver_0482_trip_001" type="commuter" depart="26520" from="706685591#0" to="442084727#2-AddedOnRampEdge" departLane="best" departSpeed="max" />
  <trip id="driver_0525_trip_001" type="taxi" depart="26520" from="1443721068" to="29165238#5" departLane="best" departSpeed="max" />
  <trip id="driver_0595_trip_001" type="commuter" depart="26520" from="443987647#1" to="45838048#1" departLane="best" departSpeed="max" />
  <trip id="driver_0911_trip_001" type="commuter" depart="26520" from="250274117" to="536906828#1" departLane="best" departSpeed="max" />
  <trip id="driver_0010_trip_001" type="commuter" depart="26580" from="443987645#2" to="-520107249#1" departLane="best" departSpeed="max" />
  <trip id="driver_0227_trip_001" type="commuter" depart="26580" from="646373243#0" to="45838048#4" departLane="best" departSpeed="max" />
  <trip id="driver_0387_trip_001" type="commuter" depart="26580" from="250273756" to="576645482#0" departLane="best" departSpeed="max" />
  <trip id="driver_0634_trip_001" type="commuter" depart="26580" from="27336730#9" to="440771230#1" departLane="best" departSpeed="max" />
  <trip id="driver_0675_trip_001" type="private_car" depart="26580" from="427564710#2" to="445209017#1" departLane="best" departSpeed="max" />
  <trip id="driver_0898_trip_001" type="commuter" depart="26580" from="444126142" to="450614679" departLane="best" departSpeed="max" />
  <trip id="driver_0046_trip_001" type="commuter" depart="26640" from="-441215231#1" to="481045531#2" departLane="best" departSpeed="max" />
  <trip id="driver_0217_trip_001" type="private_car" depart="26640" from="188248177#0" to="-441215231#0" departLane="best" departSpeed="max" />
  <trip id="driver_0224_trip_001" type="taxi" depart="26640" from="444400943" to="624728720#3" departLane="best" departSpeed="max" />
  <trip id="driver_0283_trip_001" type="private_car" depart="26640" from="585911372#2" to="440769417" departLane="best" departSpeed="max" />
  <trip id="driver_0609_trip_001" type="commuter" depart="26640" from="-605357670#3" to="-45838048#4" departLane="best" departSpeed="max" />
  <trip id="driver_0735_trip_001" type="private_car" depart="26640" from="734144751#2" to="511478558#0" departLane="best" departSpeed="max" />
  <trip id="driver_0983_trip_001" type="commuter" depart="26640" from="427564712#0" to="-624728719#2" departLane="best" departSpeed="max" />
  <trip id="driver_0023_trip_001" type="commuter" depart="26700" from="453294516#1" to="737631347#0" departLane="best" departSpeed="max" />
  <trip id="driver_0208_trip_001" type="commuter" depart="26700" from="199896075#1" to="444400942#0" departLane="best" departSpeed="max" />
  <trip id="driver_0242_trip_001" type="private_car" depart="26700" from="444418076#1" to="184739533#7" departLane="best" departSpeed="max" />
  <trip id="driver_0345_trip_001" type="commuter" depart="26700" from="904676306#0" to="439965069#0" departLane="best" departSpeed="max" />
  <trip id="driver_0367_trip_001" type="commuter" depart="26700" from="-427774900#3" to="-440771230#2" departLane="best" departSpeed="max" />
  <trip id="driver_0504_trip_001" type="private_car" depart="26700" from="441215233#0" to="248284676" departLane="best" departSpeed="max" />
  <trip id="driver_0607_trip_001" type="commuter" depart="26700" from="444126139" to="519662802#7" departLane="best" departSpeed="max" />
  <trip id="driver_0689_trip_001" type="commuter" depart="26700" from="-184739533#6" to="440781327" departLane="best" departSpeed="max" />
  <trip id="driver_0776_trip_001" type="commuter" depart="26700" from="-453033846#4" to="-860062300" departLane="best" departSpeed="max" />
  <trip id="driver_0832_trip_001" type="commuter" depart="26700" from="-441215231#2" to="80912579#5" departLane="best" departSpeed="max" />
  <trip id="driver_0928_trip_001" type="private_car" depart="26700" from="184827120#4" to="603954443#1" departLane="best" departSpeed="max" />
  <trip id="driver_0951_trip_001" type="taxi" depart="26700" from="460894516#1" to="-444418076#9" departLane="best" departSpeed="max" />
  <trip id="driver_0976_trip_001" type="commuter" depart="26700" from="-832418849#3" to="442232082#0" departLane="best" departSpeed="max" />
  <trip id="driver_0060_trip_001" type="commuter" depart="26760" from="443987640#2" to="440771240" departLane="best" departSpeed="max" />
  <trip id="driver_0150_trip_001" type="commuter" depart="26760" from="427774900#3" to="1288222582#1" departLane="best" departSpeed="max" />
  <trip id="driver_0192_trip_001" type="commuter" depart="26760" from="-605357670#4" to="440765420#3" departLane="best" departSpeed="max" />
  <trip id="driver_0285_trip_001" type="commuter" depart="26760" from="-194686987#4" to="624728712#1" departLane="best" departSpeed="max" />
  <trip id="driver_0394_trip_001" type="private_car" depart="26760" from="-427564714#1" to="33563313" departLane="best" departSpeed="max" />
  <trip id="driver_0426_trip_001" type="commuter" depart="26760" from="520107251#1" to="449880708#7" departLane="best" departSpeed="max" />
  <trip id="driver_0803_trip_001" type="private_car" depart="26760" from="-742778601#1" to="458696117" departLane="best" departSpeed="max" />
  <trip id="driver_0045_trip_001" type="commuter" depart="26820" from="737870913" to="442232081" departLane="best" departSpeed="max" />
  <trip id="driver_0088_trip_001" type="commuter" depart="26820" from="734144754#0" to="550008871#1" departLane="best" departSpeed="max" />
  <trip id="driver_0342_trip_001" type="commuter" depart="26820" from="-832418849#3" to="444151453" departLane="best" departSpeed="max" />
  <trip id="driver_0437_trip_001" type="commuter" depart="26820" from="706685590#0" to="441997995#0" departLane="best" departSpeed="max" />
  <trip id="driver_0508_trip_001" type="commuter" depart="26820" from="448317071" to="80912586#8" departLane="best" departSpeed="max" />
  <trip id="driver_0680_trip_001" type="commuter" depart="26820" from="29165238#0" to="80912578#3" departLane="best" departSpeed="max" />
  <trip id="driver_0887_trip_001" type="commuter" depart="26820" from="1396476982" to="1288222581#1" departLane="best" departSpeed="max" />
  <trip id="driver_0979_trip_001" type="commuter" depart="26820" from="-734144751#2" to="520107249#4" departLane="best" departSpeed="max" />
  <trip id="driver_0049_trip_001" type="private_car" depart="26880" from="444014975#1" to="194344114#1" departLane="best" departSpeed="max" />
  <trip id="driver_0108_trip_001" type="commuter" depart="26880" from="444126141" to="440769435#1" departLane="best" departSpeed="max" />
  <trip id="driver_0637_trip_001" type="commuter" depart="26880" from="697670538" to="188246591#1" departLane="best" departSpeed="max" />
  <trip id="driver_0683_trip_001" type="commuter" depart="26880" from="-453033846#4" to="541821715#0" departLane="best" departSpeed="max" />
  <trip id="driver_0692_trip_001" type="commuter" depart="26880" from="194686987#2" to="444351852#2" departLane="best" departSpeed="max" />
  <trip id="driver_0707_trip_001" type="taxi" depart="26880" from="45838048#4" to="119029072#1" departLane="best" departSpeed="max" />
  <trip id="driver_0018_trip_001" type="private_car" depart="26940" from="450175546#1" to="451515434#1" departLane="best" departSpeed="max" />
  <trip id="driver_0058_trip_001" type="taxi" depart="26940" from="520438401" to="706685591#1" departLane="best" departSpeed="max" />
  <trip id="driver_0107_trip_001" type="commuter" depart="26940" from="-1416525355" to="450614678#4" departLane="best" departSpeed="max" />
  <trip id="driver_0109_trip_001" type="commuter" depart="26940" from="443987645#0" to="481045532#2" departLane="best" departSpeed="max" />
  <trip id="driver_0170_trip_001" type="commuter" depart="26940" from="450350861" to="79182771#5" departLane="best" departSpeed="max" />
  <trip id="driver_0248_trip_001" type="commuter" depart="26940" from="450175300" to="624728720#1" departLane="best" departSpeed="max" />
  <trip id="driver_0275_trip_001" type="commuter" depart="26940" from="427564714#1" to="-662685557#1" departLane="best" departSpeed="max" />
  <trip id="driver_0344_trip_001" type="commuter" depart="26940" from="605357670#1" to="233809684-AddedOffRampEdge" departLane="best" departSpeed="max" />
  <trip id="driver_0369_trip_001" type="commuter" depart="26940" from="453033846#3" to="440881637-AddedOnRampEdge" departLane="best" departSpeed="max" />
  <trip id="driver_0026_trip_001" type="commuter" depart="27000" from="1416525358#0" to="511204845#4" departLane="best" departSpeed="max" />
  <trip id="driver_0173_trip_001" type="commuter" depart="27000" from="-427564712#0" to="541821722#1" departLane="best" departSpeed="max" />
  <trip id="driver_0436_trip_001" type="commuter" depart="27000" from="742778601#1" to="194344105#0" departLane="best" departSpeed="max" />
  <trip id="driver_0453_trip_001" type="commuter" depart="27000" from="466643171#0" to="520107249#0" departLane="best" departSpeed="max" />
  <trip id="driver_0465_trip_001" type="private_car" depart="27000" from="-184827126#2" to="440881636#1-AddedOffRampEdge" departLane="best" departSpeed="max" />
  <trip id="driver_0575_trip_001" type="commuter" depart="27000" from="706685591#2" to="402932403#3" departLane="best" departSpeed="max" />
  <trip id="driver_0621_trip_001" type="commuter" depart="27000" from="441215233#2" to="233809684-AddedOffRampEdge" departLane="best" departSpeed="max" />
  <trip id="driver_0795_trip_001" type="commuter" depart="27000" from="816423085#1" to="520107249#0" departLane="best" departSpeed="max" />
  <trip id="driver_0805_trip_001" type="commuter" depart="27000" from="445014534" to="541821720#0" departLane="best" departSpeed="max" />
  <trip id="driver_0971_trip_001" type="commuter" depart="27000" from="441215233#0" to="550008869" departLane="best" departSpeed="max" />
  <trip id="driver_0992_trip_001" type="commuter" depart="27000" from="923953844#0" to="-520107249#1" departLane="best" departSpeed="max" />
  <trip id="driver_0090_trip_001" type="commuter" depart="27060" from="-520107251#0" to="-507573212#0" departLane="best" departSpeed="max" />
  <trip id="driver_0103_trip_001" type="taxi" depart="27060" from="444243640#2" to="576645478#1" departLane="best" departSpeed="max" />
  <trip id="driver_0226_trip_001" type="private_car" depart="27060" from="443987640#0" to="897550986" departLane="best" departSpeed="max" />
  <trip id="driver_0306_trip_001" type="commuter" depart="27060" from="427564705" to="442084736" departLane="best" departSpeed="max" />
  <trip id="driver_0340_trip_001" type="commuter" depart="27060" from="-441215231#0" to="440769414" departLane="best" departSpeed="max" />
  <trip id="driver_0382_trip_001" type="commuter" depart="27060" from="444126136" to="-624728719#2" departLane="best" departSpeed="max" />
  <trip id="driver_0439_trip_001" type="commuter" depart="27060" from="646373243#0" to="80912589#3" departLane="best" departSpeed="max" />
  <trip id="driver_0669_trip_001" type="private_car" depart="27060" from="1005131460" to="538306202#3" departLane="best" departSpeed="max" />
  <trip id="driver_0708_trip_001" type="private_car" depart="27060" from="-428012640" to="759851920#0" departLane="best" departSpeed="max" />
  <trip id="driver_0732_trip_001" type="taxi" depart="27060" from="240587997#1" to="402932403#3" departLane="best" departSpeed="max" />
  <trip id="driver_0749_trip_001" type="commuter" depart="27060" from="-427564710#6" to="444243640#2" departLane="best" departSpeed="max" />
  <trip id="driver_0876_trip_001" type="private_car" depart="27060" from="-194686987#4" to="624728716" departLane="best" departSpeed="max" />
  <trip id="driver_0892_trip_001" type="commuter" depart="27060" from="232602661#0-AddedOffRampEdge" to="194345861" departLane="best" departSpeed="max" />
  <trip id="driver_0902_trip_001" type="commuter" depart="27060" from="449785730-AddedOnRampEdge" to="442084726" departLane="best" departSpeed="max" />
  <trip id="driver_0966_trip_001" type="commuter" depart="27060" from="29140969#5" to="442014420#1" departLane="best" departSpeed="max" />
  <trip id="driver_0020_trip_001" type="commuter" depart="27120" from="-481045543#5" to="481045532#5" departLane="best" departSpeed="max" />
  <trip id="driver_0398_trip_001" type="private_car" depart="27120" from="33563313" to="233932484#2" departLane="best" departSpeed="max" />
  <trip id="driver_0497_trip_001" type="commuter" depart="27120" from="443987647#0" to="771906757#1" departLane="best" departSpeed="max" />
  <trip id="driver_0564_trip_001" type="commuter" depart="27120" from="-428012644#0" to="624728720#3" departLane="best" departSpeed="max" />
  <trip id="driver_0577_trip_001" type="private_car" depart="27120" from="-188248177#1" to="33563313" departLane="best" departSpeed="max" />
  <trip id="driver_0715_trip_001" type="commuter" depart="27120" from="-194686987#5" to="449880708#7" departLane="best" departSpeed="max" />
  <trip id="driver_0716_trip_001" type="commuter" depart="27120" from="462138644#5" to="456382186#2" departLane="best" departSpeed="max" />
  <trip id="driver_0896_trip_001" type="commuter" depart="27120" from="444126139" to="536906828#1" departLane="best" departSpeed="max" />
  <trip id="driver_0004_trip_001" type="commuter" depart="27180" from="-1037695960#1" to="442084725#2" departLane="best" departSpeed="max" />
  <trip id="driver_0132_trip_001" type="commuter" depart="27180" from="706685590#2" to="206608466#7" departLane="best" departSpeed="max" />
  <trip id="driver_0158_trip_001" type="private_car" depart="27180" from="199896075#2" to="444428465#2" departLane="best" departSpeed="max" />
  <trip id="driver_0421_trip_001" type="commuter" depart="27180" from="-706690145#2" to="1144924620#1" departLane="best" departSpeed="max" />
  <trip id="driver_0448_trip_001" type="commuter" depart="27180" from="-199898702" to="526242013#0" departLane="best" departSpeed="max" />
  <trip id="driver_0650_trip_001" type="commuter" depart="27180" from="453033846#4" to="80912585#5" departLane="best" departSpeed="max" />
  <trip id="driver_0656_trip_001" type="commuter" depart="27180" from="-427564710#7" to="402932403#0" departLane="best" departSpeed="max" />
  <trip id="driver_0704_trip_001" type="commuter" depart="27180" from="481045543#5" to="1174315794" departLane="best" departSpeed="max" />
  <trip id="driver_0717_trip_001" type="commuter" depart="27180" from="444014976" to="-541821717#0" departLane="best" departSpeed="max" />
  <trip id="driver_0352_trip_001" type="private_car" depart="27240" from="450175546#2" to="29118093#0" departLane="best" departSpeed="max" />
  <trip id="driver_0492_trip_001" type="commuter" depart="27240" from="-453033846#4" to="1149909833" departLane="best" departSpeed="max" />
  <trip id="driver_0588_trip_001" type="private_car" depart="27240" from="233932484#0-AddedOffRampEdge" to="538306202#2-AddedOffRampEdge" departLane="best" departSpeed="max" />
  <trip id="driver_0729_trip_001" type="commuter" depart="27240" from="427564710#6" to="45838048#5" departLane="best" departSpeed="max" />
  <trip id="driver_0788_trip_001" type="commuter" depart="27240" from="544809834#0" to="481045532#4" departLane="best" departSpeed="max" />
  <trip id="driver_0937_trip_001" type="private_car" depart="27240" from="646373239#0" to="356939302#4" departLane="best" departSpeed="max" />
  <trip id="driver_0068_trip_001" type="commuter" depart="27300" from="232602658#0" to="440881637" departLane="best" departSpeed="max" />
  <trip id="driver_0086_trip_001" type="commuter" depart="27300" from="-1030848735#0" to="451042488" departLane="best" departSpeed="max" />
  <trip id="driver_0185_trip_001" type="commuter" depart="27300" from="232602661#0" to="737631347#2" departLane="best" departSpeed="max" />
  <trip id="driver_0349_trip_001" type="taxi" depart="27300" from="460917763#0" to="520438400" departLane="best" departSpeed="max" />
  <trip id="driver_0350_trip_001" type="commuter" depart="27300" from="585911372#0" to="80912585#3" departLane="best" departSpeed="max" />
  <trip id="driver_0452_trip_001" type="taxi" depart="27300" from="526242009#1" to="29142233#0" departLane="best" departSpeed="max" />
  <trip id="driver_0464_trip_001" type="commuter" depart="27300" from="453294516#2" to="737631347#3" departLane="best" departSpeed="max" />
  <trip id="driver_0499_trip_001" type="commuter" depart="27300" from="444346472#0" to="80912586#0" departLane="best" departSpeed="max" />
  <trip id="driver_0620_trip_001" type="commuter" depart="27300" from="443987640#3" to="519662802#0" departLane="best" departSpeed="max" />
  <trip id="driver_0682_trip_001" type="commuter" depart="27300" from="-742778601#0" to="481045532#5" departLane="best" departSpeed="max" />
  <trip id="driver_0705_trip_001" type="commuter" depart="27300" from="448317071" to="-206608466#5" departLane="best" departSpeed="max" />
  <trip id="driver_0997_trip_001" type="commuter" depart="27300" from="453294516#2" to="79182771#4" departLane="best" departSpeed="max" />
  <trip id="driver_0041_trip_001" type="taxi" depart="27360" from="442085400#0" to="-1172199237#3" departLane="best" departSpeed="max" />
  <trip id="driver_0157_trip_001" type="commuter" depart="27360" from="427774899#1" to="771906756#3" departLane="best" departSpeed="max" />
  <trip id="driver_0365_trip_001" type="commuter" depart="27360" from="-585911372#1" to="519662802#0" departLane="best" departSpeed="max" />
  <trip id="driver_0450_trip_001" type="private_car" depart="27360" from="428012637" to="449070493" departLane="best" departSpeed="max" />
  <trip id="driver_0471_trip_001" type="commuter" depart="27360" from="184739533#4" to="442084727#2-AddedOnRampEdge" departLane="best" departSpeed="max" />
  <trip id="driver_0523_trip_001" type="taxi" depart="27360" from="194345861" to="-858600107#0" departLane="best" departSpeed="max" />
  <trip id="driver_0628_trip_001" type="commuter" depart="27360" from="427564713" to="1445405479#1" departLane="best" departSpeed="max" />
  <trip id="driver_0206_trip_001" type="commuter" depart="27420" from="-1416525358#0" to="527878498#0" departLane="best" departSpeed="max" />
  <trip id="driver_0250_trip_001" type="commuter" depart="27420" from="-441215231#2" to="-519662802#7" departLane="best" departSpeed="max" />
  <trip id="driver_0304_trip_001" type="private_car" depart="27420" from="450175300" to="248284670#2" departLane="best" departSpeed="max" />
  <trip id="driver_0392_trip_001" type="private_car" depart="27420" from="742778602#0" to="-199898702" departLane="best" departSpeed="max" />
  <trip id="driver_0425_trip_001" type="commuter" depart="27420" from="624720033" to="440769414-AddedOffRampEdge" departLane="best" departSpeed="max" />
  <trip id="driver_0510_trip_001" type="commuter" depart="27420" from="443987645#2" to="-80912586#10" departLane="best" departSpeed="max" />
  <trip id="driver_0852_trip_001" type="commuter" depart="27420" from="427564710#1" to="80912585#5" departLane="best" departSpeed="max" />
  <trip id="driver_0184_trip_001" type="commuter" depart="27480" from="706685591#0" to="541821721#1" departLane="best" departSpeed="max" />
  <trip id="driver_0332_trip_001" type="commuter" depart="27480" from="453294516#3" to="255645805#1" departLane="best" departSpeed="max" />
  <trip id="driver_0459_trip_001" type="private_car" depart="27480" from="-427564710#4" to="248284668#1" departLane="best" departSpeed="max" />