<?xml version='1.0' encoding='utf-8'?>
<routes xmlns:xsi="http://www.w3.org/2001/XMLSchema-instance" xsi:noNamespaceSchemaLocation="http://sumo.dlr.de/xsd/routes_file.xsd">
    <vType id="rerouted_vehicle" vClass="passenger" guiShape="passenger" color="160,32,240" accel="2.6" decel="4.5" sigma="0.5" length="5" /><vType id="taxi" length="5" vClass="passenger" guiShape="taxi" color="255,255,0" accel="2.6" decel="4.5" sigma="0.5" />
    <vehicle id="driver_0015_trip_001" type="taxi" depart="23460.00" departLane="best" departSpeed="max">
        <route edges="-188246591#2 -188246591#1 456540544#1 519662802#0 519662802#1 519662802#3 519662802#4 519662802#5 519662802#6 519662802#7 519662802#9 519662802#10 248284670#1 248284670#2 102596672#0 102596672#1 442014418#0-AddedOnRampEdge 442014418#0 442014418#1 693764958 442014419 519197805 1069604915 1443036962#0 1443036962#1 440897382#2 440897382#3 440897382#4-AddedOnRampEdge 440897382#4 440897382#5 119029072#1 228124190 462138643 451041313 29118096 29165179 453717287#0-AddedOnRampEdge 453717287#0 453717287#1 453717289#0 453717289#1 453717289#2 29141762#1 29141762#2 29141762#4" />
    </vehicle>
    <vehicle id="driver_0597_trip_001" type="taxi" depart="23520.00" departLane="best" departSpeed="max">
        <route edges="45838048#8 440765420#2 440765420#3 440765420#4 440765420#5 440765420#6 440765420#7 451042488 442016280#0 442016280#1 442016280#2 442016280#3 527878498#0 440881471#3 441997996#1 445078262#0 445078262#1 445078264#0 445078264#1 402932403#0 402932403#1 402932403#2 402932403#3 442084726" />
    </vehicle>
    <vehicle id="driver_0429_trip_001" type="taxi" depart="23580.00" departLane="best" departSpeed="max">
        <route edges="440897382#4-AddedOnRampEdge 440897382#4 440897382#5 119029072#1 228124190 462138643 451041313 29118096 457886988 27318126#0 27318126#1 481045541#0 481045541#1 481045541#2 199898409#0 199898409#1 448790074#0 448790074#1 448790074#2 448790074#3 481045545#0 481045545#1 1157862092#0 1157862092#1" />
    </vehicle>
    <vehicle id="driver_0677_trip_001" type="taxi" depart="23640.00" departLane="best" departSpeed="max">
        <route edges="440781331#4 1443721068 460894516#0-AddedOnRampEdge 460894516#0 460894516#1 460894516#2 1414112408#1 428129125#1 428129125#2 428129125#4 644683736 -739038737 -928808171#0 -440781330#4 -440781330#3 -440781330#2 -440781330#1 -440781330#0 440781329 644683741 1312886246 233809680#0 440897019-AddedOnRampEdge 440897019 440769422 440897026#0 440897026#0-AddedOffRampEdge 440897026#1 1447702117#0 450614679 440897030 731817124#1 456541502 511204845#0 511204845#2 511204845#4 511204845#5 440897034 550008864 519199421 248407685 248407677 457886991 995559507#0 995559507#1 448790074#0 448790074#1 448790074#2 448790074#3 444433525#1 444433525#2 444433525#3 444433525#7" />
    </vehicle>
    <vehicle id="driver_0273_trip_001" type="taxi" depart="23760.00" departLane="best" departSpeed="max">
        <route edges="440765420#7 451042488 442016280#0 442016280#1 442016280#2 442016280#3 527878498#0 440881471#3 441997996#1 445078262#0 445078262#1 445078264#0 445078264#1 402932403#0 402932403#1 402932403#2 402932403#3 442084726" />
    </vehicle>
    <vehicle id="driver_0234_trip_001" type="taxi" depart="23820.00" departLane="best" departSpeed="max">
        <route edges="519662802#4 519662802#5 519662802#6 519662802#7 456382543#1 456382543#2 456382543#3 456382543#4 456382543#5 1172199237#1 1172199237#2 456541503 519199606#0 519199606#2 450614679 440897028#1 440897028#2 442232083#0-AddedOnRampEdge 442232083#0 442232083#1 442087558#0 442087558#1 442087558#2 188246611#0 188246611#1 576645498 576645486 576645482#0 576645482#1 576645482#3 576645482#4 444351852#0 444351852#1 -541821717#4 -541821717#3 -541821717#2 -541821717#1 541821720#3" />
    </vehicle>
    <vehicle id="driver_0989_trip_001" type="taxi" depart="23880.00" departLane="best" departSpeed="max">
        <route edges="442084733#2 481045534#1 481045534#2-AddedOnRampEdge 481045534#2" />
    </vehicle>
    <vehicle id="driver_0484_trip_001" type="taxi" depart="24000.00" departLane="best" departSpeed="max">
        <route edges="312565414#0 312565414#2 440881471#0 440881471#1 440881471#3 441997996#1 445078262#0 445078262#1 445078264#0 445078264#1 334124302#0 334124302#1 334124302#2 334124302#3 334124302#5 334124302#6 334124302#7 440771226 519199421 248407685 248407677 457886991 995559507#0 995559507#1 448790074#0 448790074#1 448790074#2 448790074#3 481045545#0 481045545#1 1157862092#0 1157862092#1 1445405482 448790075 444126136 450175546#0 450175546#1 450175546#2 706685590#0 -428012637 1092152287#0" />
    </vehicle>
    <vehicle id="driver_0546_trip_001" type="taxi" depart="24000.00" departLane="best" departSpeed="max">
        <route edges="451041314#1 444351852#0 444351852#1 444351852#2 536906827#0 536906827#1 536906827#2 442084731 442084733#0-AddedOnRampEdge 442084733#0 442084733#2 119029072#1 228124190 462138643 451041313 29118096 29165179 453717287#0-AddedOnRampEdge 453717287#0 453717287#1 462138644#1 462138644#2 462138644#3 462138644#4 462138644#5 1396476980 1462151557 1462151557-AddedOffRampEdge 457886987 445014534 938371854 232967180#1-AddedOnRampEdge 232967180#1 444014976 444014977#0 444014977#1 444014977#2" />
    </vehicle>
    <vehicle id="driver_0907_trip_001" type="taxi" depart="24000.00" departLane="best" departSpeed="max">
        <route edges="-993462498#3 -993462498#2 -993462498#1 402932403#3 442084725#0 206608466#0 206608466#1 206608466#2 206608466#3 206608466#5 206608466#7 206608466#9 547065954#0 511204845#4 511204845#5 440897034 550008864 519199421 248407685 248407677 457886991 995559508 457885320#0 457885320#1 624720029#0 184740438#0 184740438#1 -513785001#1" />
    </vehicle>
    <vehicle id="driver_0819_trip_001" type="taxi" depart="24300.00" departLane="best" departSpeed="max">
        <route edges="387281354 1445405492#2 536328372#0 -719556535 576645478#1 624728711 449860491#1 449860491#2 449860491#3 449860491#4 444400942#0 444400942#1 255645805#0 255645805#1-AddedOnRampEdge 255645805#1 255645805#2 444400943 450920618 451042488 442016280#0 442016280#1 442016280#2 442016280#3 527878498#0 440881471#3 441997996#1 445078262#0 445078262#1 445078264#0 445078264#1 119029072#1 228124190 462138643 451041313 29118096 29165179 453717287#0-AddedOnRampEdge 453717287#0 453717287#1 453717289#0 453717289#1 453717289#2 29141762#1 29141762#2 29141762#4 29141762#5 29141762#6" />
    </vehicle>
    <vehicle id="driver_0468_trip_001" type="taxi" depart="24360.00" departLane="best" departSpeed="max">
        <route edges="449880707#0 444243639#3 444243639#4 449880708#0 449880708#1 449880708#2 449880708#3-AddedOnRampEdge 449880708#3 449880708#5 449880708#7 449880708#8 449880708#9 624728713#0 624728713#1 1149909833 526242009#0 526242009#1 526242009#2 449070492 102596674 80912591 449070495 444428463#0 444428463#2 444428463#3 987053806 987053805 444428464#0 444428464#1 624720033 444018067 444018069#0 444018069#1 1462151557 1462151557-AddedOffRampEdge 457886987 445014534 938371854 232967180#1-AddedOnRampEdge 232967180#1 444014976 444014977#0 444014977#1 444014977#2 -427774900#3 -427774900#2 -427774900#1" />
    </vehicle>
    <vehicle id="driver_0064_trip_001" type="taxi" depart="24420.00" departLane="best" departSpeed="max">
        <route edges="719556535 536328372#1 481045531#2 541821714 -624728719#6 -624728719#5 -624728719#5-AddedOffRampEdge -624728719#4 -624728719#3 -624728719#2 -624728719#1 -624728719#0 624728720#0 624728720#1 624728720#2 624728720#3 737631346 444151449" />
    </vehicle>
    <vehicle id="driver_0986_trip_001" type="taxi" depart="24480.00" departLane="best" departSpeed="max">
        <route edges="-206608466#5 -206608466#4 -206608466#2 -206608466#1 -206608466#0 442084725#1 442084725#2 442084736 442084732#2 442084732#3 442084732#4 442084733#0-AddedOnRampEdge 442084733#0 442084733#2 119029072#1 228124190 462138643 451041313 29118096 29165179 453717287#0-AddedOnRampEdge 453717287#0 453717287#1 462138645#0 462138645#1 462138645#2 462138645#3 462138645#7 462138645#8 462138645#9 444418076#7 444418076#8 444418076#9 444418076#10 444418076#11 444418076#12" />
    </vehicle>
    <vehicle id="driver_0820_trip_001" type="taxi" depart="24600.00" departLane="best" departSpeed="max">
        <route edges="541821717#0 -541821720#2 536906827#2 442084731 442084733#0-AddedOnRampEdge 442084733#0 442084733#2 334124302#0 334124302#1 334124302#2 334124302#3 334124302#5 334124302#6 334124302#7 440771226 519199421 248407685 248407677 457886991 995559507#0 995559507#1 448790074#0 448790074#1 448790074#2 448790074#3 481045545#0 481045545#1 1157862092#0 1157862092#1 1445405482 444126143 904676306#0 904676306#1 904676304 199898038#0" />
    </vehicle>
    <vType id="private_car" length="5" vClass="passenger" guiShape="passenger" color="0,0,255" accel="2.6" decel="4.5" sigma="0.5" />
    <vehicle id="driver_0501_trip_001" type="private_car" depart="25200.00" departLane="best" departSpeed="max">
        <route edges="445209017#1 466643172 448280093-AddedOnRampEdge 448280093 444346472#0 444346472#1 444428465#0-AddedOnRampEdge 444428465#0 444428465#2 444422638#0 444422638#1 444422638#2 444422640 550008874#0-AddedOnRampEdge 550008874#0 550008874#1" />
    </vehicle>
    <vehicle id="driver_0910_trip_001" type="private_car" depart="25200.00" departLane="best" departSpeed="max">
        <route edges="297891659#2 462138644#3 199897219 29165238#4 29165238#5 29165238#6 462138645#1 462138645#2 462138645#3 462138645#7 462138645#8 462138645#9 462138645#12 462138645#13 462138645#14 481045545#0 481045545#1 1157862092#0 1157862092#1 1445405482 448790075 450920620#1 453294516#0 453294516#1 453294516#2 453294516#3 453294516#4 1443971168#1 646373239#0 646373239#1 233932478 233932478-AddedOffRampEdge 448282335 449547602-AddedOnRampEdge 449547602 233932484#0 233932484#0-AddedOffRampEdge 194748112#0 538306202#1 538306202#2 538306202#2-AddedOffRampEdge 538306202#3 451515434#4 356939302#0 356939302#1 102592295#0" />
    </vehicle>
    <vehicle id="driver_0413_trip_001" type="taxi" depart="25320.00" departLane="best" departSpeed="max">
        <route edges="860062299#0 860062299#1 771906756#1 771906756#2 771906756#3 442087558#2 188246611#0 188246611#1 576645498 576645486 188246607 576645490#0-AddedOnRampEdge 576645490#0 576645490#1 442359395 442232081 334124305#0 334124305#1 334124305#2" />
    </vehicle>
    <vehicle id="driver_0768_trip_001" type="taxi" depart="25320.00" departLane="best" departSpeed="max">
        <route edges="511204845#0 511204845#2 511204845#4 511204845#5 440897034 550008864 440881630 440881630-AddedOffRampEdge 440771224 440881632#0 440881632#1 440881632#2" />
    </vehicle>
    <vehicle id="driver_0676_trip_001" type="private_car" depart="25380.00" departLane="best" departSpeed="max">
        <route edges="427774899#1 427774899#2 427774900#1 427774900#2 427774900#3 444014977#3 444014978 443987647#0 443987647#1 -184827126#2 -184739533#2 444422638#0 248283749" />
    </vehicle>
    <vehicle id="driver_0960_trip_001" type="taxi" depart="25380.00" departLane="best" departSpeed="max">
        <route edges="-519662802#9 456382543#1 456382543#2 -496009994#4 -496009994#3 -496009994#2 -496009994#1 -496009994#0 442014418#1 693764958 442014419 519197805 550008864 519199421 248407685 248407677 457886991 995559507#0 995559507#1 448790074#0 448790074#1 448790074#2 448790074#3 481045545#0 481045545#1 1157862092#0 1157862092#1 1445405482 444126143 904676306#0 904676306#1 448790076 444018069#0 444018069#1 1462151557 1462151557-AddedOffRampEdge 457886987 445014534 938371854 232967180#1-AddedOnRampEdge 232967180#1 585911372#0 585911372#1 585911372#2 1416525356#0 1416525356#1 1416525358#0 1416525358#1 -605357670#4" />
    </vehicle>
    <vehicle id="driver_0222_trip_001" type="private_car" depart="25500.00" departLane="best" departSpeed="max">
        <route edges="-428012640 453033846#2 453033846#3 427564711#0 427564711#1 184827120#2 184827120#3 184827120#4 646373239#0 646373239#1 233932478 233932478-AddedOffRampEdge 448282335 449547602-AddedOnRampEdge 449547602 233932484#0 233932484#0-AddedOffRampEdge 194748112#0 603954443#0 603954443#1" />
    </vehicle>
    <vehicle id="driver_0477_trip_001" type="private_car" depart="25500.00" departLane="best" departSpeed="max">
        <route edges="697672669#2 697672669#3 697672669#4 248282334#0 248282334#1 248282334#2 248282334#3 248282334#6 248282334#7 248282334#8 248282334#9 462138645#0 462138645#1 462138645#2 462138645#3 462138645#7 462138645#8 462138645#9 462138645#12 462138645#13 462138645#14 462138646 444428461#1 734144750#0 734144750#3 734144750#4 1272406240#1 759851923#1 759851923#2 759851923#3 444428463#0 444428463#2 444428463#3 987053806" />
    </vehicle>
    <vehicle id="driver_0611_trip_001" type="taxi" depart="25500.00" departLane="best" departSpeed="max">
        <route edges="-541821717#2 -541821717#1 541821720#3 507573212#1 507573212#2 541821715#0 576645486 188246607 576645490#0-AddedOnRampEdge 576645490#0 576645490#1 442084732#0 442084732#2 442084732#3 442084732#4 442084733#0-AddedOnRampEdge 442084733#0 442084733#2 334124302#0 334124302#1 334124302#2 334124302#3 334124302#5 334124302#6 334124302#7 440881629 624728714 1069604916 519199419#0 519199419#1 519199419#2 519199419#3 519199419#4 519199419#5 442014417#0 442014417#1 624728715 624728716-AddedOnRampEdge 624728716 444419547#0 603486754 603486756#4 603486758 444149842#2 27318117#0-AddedOnRampEdge 27318117#0 27318117#1 444149844 444232018" />
    </vehicle>
    <vehicle id="driver_0642_trip_001" type="private_car" depart="25500.00" departLane="best" departSpeed="max">
        <route edges="27336785#0 441215233#0 441215233#1 441215233#2 441215234 445209017#0 445209017#1 466643172 448280093-AddedOnRampEdge 448280093 444346472#0 444346472#1 444428465#0-AddedOnRampEdge 444428465#0 444428465#2 923953845 248284676 102596669 1445405480 1445405479#1 440769419 1149909832#0 1149909832#1 194344114#2 80912579#1 80912579#2 -80912578#1 449880708#7 449880708#8 449880708#9 624728713#0" />
    </vehicle>
    <vehicle id="driver_0935_trip_001" type="private_car" depart="25500.00" departLane="best" departSpeed="max">
        <route edges="-199898701#1 -199898701#0 -184739533#6 -184739533#5" />
    </vehicle>
    <vehicle id="driver_0243_trip_001" type="private_car" depart="25560.00" departLane="best" departSpeed="max">
        <route edges="184739533#6 184739533#7" />
    </vehicle>
    <vehicle id="driver_0944_trip_001" type="taxi" depart="25560.00" departLane="best" departSpeed="max">
        <route edges="576651584 624728721 624728710#1 624728710#2 481045532#1 481045532#2 481045532#3 481045532#4 481045532#5 481045532#5-AddedOffRampEdge 481045532#6 442084730 771906757#1-AddedOnRampEdge" />
    </vehicle>
    <vehicle id="driver_0958_trip_001" type="private_car" depart="25560.00" departLane="best" departSpeed="max">
        <route edges="27336730#7 27336730#8 27336730#9 27336785#0 441215233#0 441215233#1 441215233#2 441215234 445209017#0 445209017#1 466643172 448280093-AddedOnRampEdge 448280093 444346472#0 444346472#1 444428465#0-AddedOnRampEdge 444428465#0 444428465#2 923953845 248284676 102596669 1445405480 1445405479#1 440769419 1149909832#0 1149909832#1 194344114#2 80912579#1 80912579#2 -80912578#1" />
    </vehicle>
    <vehicle id="driver_0147_trip_001" type="private_car" depart="25620.00" departLane="best" departSpeed="max">
        <route edges="-427564710#2 -427564710#1 -427564710#0 453040323 453040323-AddedOffRampEdge 453294515 686139777 444126141 1445405481 450614677#0 450614677#1 450614677#3 462131778#0 462131778#1 462131778#2 481045546#0 481045546#2 457885321 995559511 444126144#0 444126144#1 299795207 444149841 444149841-AddedOffRampEdge 444149842#0 603486755 603486756#2 603486757 444419547#2 449070494 449070493 444419548 248284668#1 458696117-AddedOnRampEdge 458696117 1445405480 519662337 526242009#1 526242009#2 248284670#0" />
    </vehicle>
    <vehicle id="driver_0569_trip_001" type="private_car" depart="25620.00" departLane="best" departSpeed="max">
        <route edges="427564711#1 184827120#2 184827120#3 184827120#4 646373239#0 646373239#1 233932478 233932478-AddedOffRampEdge 448282335 449547602-AddedOnRampEdge 449547602 233932484#0 233932484#0-AddedOffRampEdge 194748112#0 538306202#1 538306202#2 538306202#2-AddedOffRampEdge 538306200 356939301#3 356939301#4 356939301#5 449546093" />
    </vehicle>
    <vehicle id="driver_0724_trip_001" type="private_car" depart="25620.00" departLane="best" departSpeed="max">
        <route edges="-427774912 427774900#0 427774900#1 427774900#2 427774900#3 444014977#3 443987645#0 443987645#1 443987645#2 443987645#3 450175545 444126139 444126141 1445405481 450614677#0 450614677#1 450614677#3 462131778#0 462131778#1 462131778#2 481045546#0 481045546#2 457885321 995559511 526242006 1069604916 519199419#0 519199419#1 519199419#2 519199419#3 519199419#4 519199419#5 442014417#0 442014417#1 458696110#0" />
    </vehicle>
    <vehicle id="driver_0815_trip_001" type="private_car" depart="25620.00" departLane="best" departSpeed="max">
        <route edges="-427774900#0 427774912 1416525354 -585911372#2 -585911372#1 -585911372#0 444014976 444014977#0 444014977#1 444014977#2 444014977#3 444014978 443987647#0 443987647#1 199896075#1 199896075#2 -199898702" />
    </vehicle>
    <vehicle id="driver_0899_trip_001" type="private_car" depart="25620.00" departLane="best" departSpeed="max">
        <route edges="-29140969#7 -1373650660#0 -1292285741#2 -1292285741#1 759851923#2 759851923#3 444428463#0 444428463#2 444428463#3 987053806 987053805 444418083 444428465#0-AddedOnRampEdge 444428465#0 444428465#2 923953845 248284676 102596669 1445405480 519662337 526242009#1 526242009#2 248284670#0 248284670#1" />
    </vehicle>
    <vehicle id="driver_0741_trip_001" type="taxi" depart="25680.00" departLane="best" departSpeed="max">
        <route edges="458696120#3 458696120#4 444151448#2 444243640#0 444243640#1 444243640#2 444243640#3 646262293 646262293-AddedOffRampEdge 526242012 481045530 444243642 737631347#0 737631347#1 737631347#2-AddedOnRampEdge 737631347#2 737631347#3 1144924620#1 440897030 731817125#0 731817125#2 440881635 188246591#1 188246591#2 188246591#3 456384920#0 456384920#1 1172199237#1 1172199237#2" />
    </vehicle>
    <vehicle id="driver_0030_trip_001" type="private_car" depart="25740.00" departLane="best" departSpeed="max">
        <route edges="444014977#2 444014977#3 444014978 443987647#0 443987647#1 199896075#1 199896075#2 -199898702 -184739533#5" />
    </vehicle>
    <vehicle id="driver_0038_trip_001" type="private_car" depart="25740.00" departLane="best" departSpeed="max">
        <route edges="-441215231#1 -441215231#0 441215234 445209017#0 445209017#1 466643172 448280093-AddedOnRampEdge 448280093 444346472#0 444346472#1 444428465#0-AddedOnRampEdge 444428465#0 444428465#2 184739533#1 184739533#4 184739533#6" />
    </vehicle>
    <vehicle id="driver_0666_trip_001" type="private_car" depart="25740.00" departLane="best" departSpeed="max">
        <route edges="904676303 29165238#1 29165238#2 29165238#3 29165238#4 29165238#5 29165238#6 457176635#1 457176635#2 453717286 457884963 457886989 771832529#0 771832529#1-AddedOnRampEdge 771832529#1 481045538#6 481045539#0 481045539#1 481045539#2 481045539#3 481045539#4 481045539#5 481045539#6 693765746 448790072#1 448790073#0 448790073#1 444149841 444149841-AddedOffRampEdge 444149842#0 603486755 603486756#2 603486757 444419547#2 449070494 449070493 444419548 248284668#1 458696117-AddedOnRampEdge 458696117 1445405480 1445405479#1 1445405479#2 1445405479#3 1445405479#4 458696120#1 458696120#2 458696120#3 458696120#4 444151448#2 444243640#0" />
    </vehicle>
    <vehicle id="driver_0697_trip_001" type="taxi" depart="25800.00" departLane="best" departSpeed="max">
        <route edges="444232198-AddedOnRampEdge 444232198 646262294 -481045554#1 481045555#1 481045556#1 481045527#0 481045527#1 481045528 444232197 481045530 444243641 526242020 624728721 624728710#1 624728710#2 481045532#1 481045532#2 481045532#3 -1288222582#1 -1288222582#0 -541821713#0 -624728719#7" />
    </vehicle>
    <vehicle id="driver_0267_trip_001" type="private_car" depart="25860.00" departLane="best" departSpeed="max">
        <route edges="585911372#1 -832418849#2 -832418849#1 443987640#3 444014976 444014977#0 444014977#1 444014977#2 444014977#3 444014978 646373239#0 646373239#1 233932478 233932478-AddedOffRampEdge 448282335 449547602-AddedOnRampEdge 449547602 233932484#0 233932484#0-AddedOffRampEdge 194748112#0 538306202#1 538306202#2 538306202#2-AddedOffRampEdge 538306202#3 451515434#4 356939302#0 356939302#1" />
    </vehicle>
    <vehicle id="driver_0489_trip_001" type="private_car" depart="25920.00" departLane="best" departSpeed="max">
        <route edges="444126137 453294516#0 453294516#1 453294516#2 453294516#3 453294516#4 1443971168#1 443987647#0 443987647#1 -184827126#2 -184739533#2 444422638#0 248283749" />
    </vehicle>
    <vehicle id="driver_0033_trip_001" type="private_car" depart="25980.00" departLane="best" departSpeed="max">
        <route edges="-585911372#0 444014976 444014977#0 444014977#1 444014977#2 444014977#3 444014978 443987647#0 443987647#1 -184827126#2 -184739533#2 444422638#0" />
    </vehicle>
    <vehicle id="driver_0295_trip_001" type="taxi" depart="25980.00" departLane="best" departSpeed="max">
        <route edges="1445405492#2 536328372#0 -719556535 576645478#1 624728711 449860491#1 449860491#2 449860491#3 449860491#4 444400942#0 444400942#1 255645805#0 255645805#1-AddedOnRampEdge 255645805#1 255645805#2 444400943 450920618 451042488 442016280#0 442016280#1 442016280#2 442016280#3 527878498#0 440881471#3 441997996#1 445078262#0 445078262#1 445078264#0 445078264#1 334124302#0 334124302#1 334124302#2 334124302#3 334124302#5 334124302#6 334124302#7 440771226 519199421 248407685 248407677 457886991 995559508 457885320#0 457885320#1" />
    </vehicle>
    <vehicle id="driver_0001_trip_001" type="private_car" depart="26100.00" departLane="best" departSpeed="max">
        <route edges="-194686987#0 -585911372#2 -585911372#1 -585911372#0 444014976 444014977#0 444014977#1 444014977#2 444014977#3 444014978 646373239#0 646373239#1 233932478 233932478-AddedOffRampEdge 448282335 449547602-AddedOnRampEdge 449547602 233932484#0 233932484#0-AddedOffRampEdge 194748112#0 538306202#1 538306202#2 538306202#2-AddedOffRampEdge 538306202#3 451515434#4 356939302#0 356939302#1 356939302#3 356939302#4 949038355#0" />
    </vehicle>
    <vehicle id="driver_0757_trip_001" type="private_car" depart="26100.00" departLane="best" departSpeed="max">
        <route edges="448790075 450920620#1 453294516#0 453294516#1 453294516#2 453294516#3 453294516#4 1443971168#1 646373239#0 646373239#1 233932478 233932478-AddedOffRampEdge 448282335 449547602-AddedOnRampEdge 449547602 233932484#0 233932484#0-AddedOffRampEdge 194748112#0 603954443#0 603954443#1" />
    </vehicle>
    <vehicle id="driver_0891_trip_001" type="private_car" depart="26220.00" departLane="best" departSpeed="max">
        <route edges="427564714#0 427564714#1 428012644#0 428012644#1 428012644#2 428012644#3 443987645#3 450175545 444126139 444126141 1445405481 450614677#0 450614677#1 450614677#3 462131778#0 462131778#1 462131778#2 481045546#0 481045546#2 457885321 995559511 526242006 1069604918 442014420#0 442014420#1 456541503 519199606#0 519199606#2 1144924622#1 1156195448 450614678#1 450614678#2 450614678#3 80912586#0 80912586#1 80912586#4 80912586#5 80912586#8 80912586#10 449880708#5 449880708#7 449880708#8 449880708#9 624728713#0" />
    </vehicle>
    <vehicle id="driver_0857_trip_001" type="taxi" depart="26340.00" departLane="best" departSpeed="max">
        <route edges="771906757#1 771906756#1 771906756#2 771906756#3 442087558#2 188246611#0 188246611#1 576645498 576645486 188246607 576645490#0-AddedOnRampEdge 576645490#0 576645490#1 442084732#0 442084732#2 442084732#3 442084732#4 442084733#0-AddedOnRampEdge 442084733#0 442084733#2 334124302#0 334124302#1 334124302#2 334124302#3 587667683#0" />
    </vehicle>
    <vehicle id="driver_0906_trip_001" type="private_car" depart="26340.00" departLane="best" departSpeed="max">
        <route edges="-194686987#4 -194686987#3 -194686987#2 -194686987#1 -194686987#0 -585911372#2 -585911372#1 -585911372#0 444014976 444014977#0 444014977#1 444014977#2 444014977#3 444014978 646373239#0 646373239#1 233932478 233932478-AddedOffRampEdge 448282335 449547602-AddedOnRampEdge 449547602 233932484#0 233932484#0-AddedOffRampEdge 194748112#0 538306202#1 538306202#2 538306202#2-AddedOffRampEdge 538306202#3 451515434#4 356939302#0 356939302#1 356939302#3" />
    </vehicle>
    <vehicle id="driver_0280_trip_001" type="private_car" depart="26400.00" departLane="best" departSpeed="max">
        <route edges="904676306#1 904676304 199898038#0 199898038#1 199898038#2 199898038#3 199898038#4 462138645#7 462138645#8 462138645#9 462138645#12 462138645#13 462138645#14 481045545#0 481045545#1 1157862092#0 1157862092#1 1445405482 448790075 450920620#1 453294516#0 453294516#1 453294516#2 453294516#3 453294516#4 1443971168#1 646373239#0 646373239#1 233932478 233932478-AddedOffRampEdge 448282335 449547602-AddedOnRampEdge 449547602 233932484#0 233932484#0-AddedOffRampEdge 194748112#0 603954443#0 585606280#1" />
    </vehicle>
    <vType id="commuter" length="5" vClass="passenger" guiShape="passenger" color="0,180,0" accel="2.6" decel="4.5" sigma="0.5" />
    <vehicle id="driver_0454_trip_001" type="commuter" depart="26400.00" departLane="best" departSpeed="max">
        <route edges="-184827126#2 -184739533#2 923953845 248284676 102596669 1445405480 1445405479#1 1445405479#2 1445405479#3 1445405479#4 458696120#1 458696120#2 458696120#3 458696120#4 444151448#2 444243640#0 444243640#1 444243640#2 444243640#3 646262293 646262293-AddedOffRampEdge 526242012 481045530 444243641 526242020 624728721 624728710#1 624728710#2 481045531#0 481045531#1 481045531#2 541821714 -624728719#6" />
    </vehicle>
    <vehicle id="driver_0530_trip_001" type="commuter" depart="26400.00" departLane="best" departSpeed="max">
        <route edges="832418841#4 454632165#0 454632165#2 1005131462 697672671 697672669#1 697672669#2 697672669#3 697672669#4 697672669#5 453717290 443987641#0 443987641#1 538335656 445014537 519196116-AddedOnRampEdge 519196116 442010287 536906827#0 536906827#1 541821720#2 541821720#3 -860062296#3 -860062296#2 -860062296#1" />
    </vehicle>
    <vehicle id="driver_0062_trip_001" type="private_car" depart="26460.00" departLane="best" departSpeed="max">
        <route edges="923953844#0 923953844#1 233932483 233932483-AddedOffRampEdge 449548999 448280093-AddedOnRampEdge 448280093 444346472#0 444346472#1 444428465#0-AddedOnRampEdge 444428465#0 444428465#2 923953845 248284676 102596669 1445405480 1445405479#1 1445405479#2 1445405479#3 1445405479#4 458696120#1 458696120#2 458696120#3 458696120#4 444151448#2 444243640#0 444243640#1" />
    </vehicle>
    <vehicle id="driver_0393_trip_001" type="commuter" depart="26460.00" departLane="best" departSpeed="max">
        <route edges="450614677#1 450614677#3 462131778#0 462131778#1 462131778#2 481045546#0 481045546#2 457885321 995559511 526242006 1069604918 442014420#0 442014420#1 -1172199237#3 -1172199237#1 -456384920#1 -456384920#0 -188246591#3" />
    </vehicle>
    <vehicle id="driver_0539_trip_001" type="taxi" depart="26460.00" departLane="best" departSpeed="max">
        <route edges="646262293-AddedOffRampEdge 526242012 481045530 444243642 737631347#0 737631347#1 737631347#2-AddedOnRampEdge 737631347#2 737631347#3 1144924620#1 440897030 731817124#1 456541502 511204845#0 511204845#2 511204845#4 511204845#5 440897034 550008864 519199421 248407685 248407677 457886990 995559510#0 995559510#1 448781893 624720024#0 624720024#2 -29141189#3 -29141189#2 -29141189#0" />
    </vehicle>
    <vehicle id="driver_0764_trip_001" type="commuter" depart="26460.00" departLane="best" departSpeed="max">
        <route edges="184827120#3 184827120#4 443987647#0 443987647#1 -184827126#2 -184739533#2 444422638#0 444422638#1 444422638#2 444422640 550008874#0-AddedOnRampEdge 550008874#0 550008874#1 550008874#2 550008877 481045549#0 481045549#1 576645493#3 526242004#0 526242004#2 526242004#3 248407674#0 248407674#2 526242006 519197805 1069604915 1443036962#0 1443036962#1 440897382#2 440897382#3 440897382#4-AddedOnRampEdge 440897382#4 440897382#5 194345865#1 194345865#2 458080382#1 441997994 442016280#0 442016280#1" />
    </vehicle>
    <vehicle id="driver_0197_trip_001" type="private_car" depart="26520.00" departLane="best" departSpeed="max">
        <route edges="-427564714#0 428012637 706685590#1 706685590#2 427564713 448317071 453038175 706685591#0 706685591#1 706685591#2 448314188 453040323 453040323-AddedOffRampEdge 444126137 453294516#0 453294516#1 453294516#2 453294516#3 453294516#4 1443971168#1 646373239#0 646373239#1 233932478 233932478-AddedOffRampEdge 448282335 449547602-AddedOnRampEdge 449547602 233932484#0" />
    </vehicle>
    <vehicle id="driver_0401_trip_001" type="commuter" depart="26520.00" departLane="best" departSpeed="max">
        <route edges="453033846#4 453033846#5 -427564710#5 -427564710#4 -427564710#3 -427564710#2 -427564710#1 -427564710#0 453040323 453040323-AddedOffRampEdge 453294515 686139777 444126141 1445405481 450614677#0 450614677#1 450614677#3 462131778#0 462131778#1 462131778#2 481045546#0 481045546#2 457885321 995559511 526242006 1069604918 442014420#0 442014420#1 456541503 519199606#0 519199606#2 1144924622#1 1156195448 450614678#1 450614678#2 450614678#3 450614678#4 450614678#4-AddedOffRampEdge 550008869 481045528 444232197 481045530 444243641 526242020 624728721 624728710#1 481045550#1" />
    </vehicle>